ethanol_pose_1
  CREST reference geometry

  9  8  0  0  0  0  0  0  0  0999 V2000
   -1.2751    0.2515   -0.0158 C   0  0  0  0  0  0  0  0  0  0  0  0
    0.0145   -0.5610    0.0327 C   0  0  0  0  0  0  0  0  0  0  0  0
    1.1688    0.2414   -0.0563 O   0  0  0  0  0  0  0  0  0  0  0  0
   -2.1346   -0.4129   -0.0063 H   0  0  0  0  0  0  0  0  0  0  0  0
   -1.3037    0.8524   -0.9216 H   0  0  0  0  0  0  0  0  0  0  0  0
   -1.3401    0.9161    0.8448 H   0  0  0  0  0  0  0  0  0  0  0  0
    0.0680   -1.2378   -0.8229 H   0  0  0  0  0  0  0  0  0  0  0  0
    0.0399   -1.1640    0.9532 H   0  0  0  0  0  0  0  0  0  0  0  0
    1.1393    0.9022    0.6449 H   0  0  0  0  0  0  0  0  0  0  0  0
  1  2  1  0  0  0  0
  1  4  1  0  0  0  0
  1  5  1  0  0  0  0
  1  6  1  0  0  0  0
  2  3  1  0  0  0  0
  2  7  1  0  0  0  0
  2  8  1  0  0  0  0
  3  9  1  0  0  0  0
M  END
>  <Pose>
reference

$$$$
ethanol_pose_2
  CREST mirrored geometry

  9  8  0  0  0  0  0  0  0  0999 V2000
   -1.2750   -0.2516   -0.0158 C   0  0  0  0  0  0  0  0  0  0  0  0
    0.0146    0.5612    0.0328 C   0  0  0  0  0  0  0  0  0  0  0  0
    1.1687   -0.2415   -0.0563 O   0  0  0  0  0  0  0  0  0  0  0  0
   -2.1345    0.4130   -0.0070 H   0  0  0  0  0  0  0  0  0  0  0  0
   -1.3404   -0.9163    0.8448 H   0  0  0  0  0  0  0  0  0  0  0  0
   -1.3032   -0.8523   -0.9216 H   0  0  0  0  0  0  0  0  0  0  0  0
    0.0396    1.1641    0.9531 H   0  0  0  0  0  0  0  0  0  0  0  0
    0.0684    1.2381   -0.8228 H   0  0  0  0  0  0  0  0  0  0  0  0
    1.1390   -0.9025    0.6446 H   0  0  0  0  0  0  0  0  0  0  0  0
  1  2  1  0  0  0  0
  1  4  1  0  0  0  0
  1  5  1  0  0  0  0
  1  6  1  0  0  0  0
  2  3  1  0  0  0  0
  2  7  1  0  0  0  0
  2  8  1  0  0  0  0
  3  9  1  0  0  0  0
M  END
>  <Pose>
probe

$$$$
